Chemuson
Chemuson

 13 13  0  0  0  0  0  0  0  0999 V2000
    0.0000    0.0000    0.0000 O   0  0  0  0  0  0  0  0  0  0  0  0
    1.0000    0.0000    0.0000 C   0  0  0  0  0  0  0  0  0  0  0  0
    2.0000    0.0000    0.0000 C   0  0  0  0  0  0  0  0  0  0  0  0
    3.0000    0.0000    0.0000 C   0  0  0  0  0  0  0  0  0  0  0  0
    4.0000    0.0000    0.0000 C   0  0  0  0  0  0  0  0  0  0  0  0
    1.0000    1.2000    0.0000 O   0  0  0  0  0  0  0  0  0  0  0  0
    2.0000    1.2000    0.0000 O   0  0  0  0  0  0  0  0  0  0  0  0
    3.0000    1.2000    0.0000 O   0  0  0  0  0  0  0  0  0  0  0  0
    4.8000    1.0000    0.0000 C   0  0  0  0  0  0  0  0  0  0  0  0
    5.6000    1.8000    0.0000 O   0  0  0  0  0  0  0  0  0  0  0  0
    0.2000    1.0000    0.0000 C   0  0  0  0  0  0  0  0  0  0  0  0
   -0.6000    1.8000    0.0000 O   0  0  0  0  0  0  0  0  0  0  0  0
    2.0000   -1.2000    0.0000 O   0  0  0  0  0  0  0  0  0  0  0  0
  1  2  1  0  0  0  0
  2  3  1  0  0  0  0
  3  4  1  0  0  0  0
  4  5  1  0  0  0  0
  5  1  1  0  0  0  0
  2  6  1  0  0  0  0
  3  7  1  0  0  0  0
  4  8  1  0  0  0  0
  5  9  1  0  0  0  0
  9 10  1  0  0  0  0
  2 11  1  0  0  0  0
 11 12  1  0  0  0  0
  3 13  1  0  0  0  0
M  END